Version 4
SHEET 1 1432 776
WIRE -48 -224 -672 -224
WIRE 176 -224 -48 -224
WIRE 608 -224 176 -224
WIRE -672 -16 -672 -224
WIRE -528 -16 -672 -16
WIRE -48 -16 -48 -224
WIRE -48 -16 -528 -16
WIRE 176 -16 176 -224
WIRE 176 -16 -48 -16
WIRE 608 -16 608 -224
WIRE 608 -16 176 -16
WIRE -528 368 -528 -16
WIRE 176 368 176 -16
WIRE 176 368 -528 368
WIRE -528 752 -528 368
WIRE 176 752 176 368
WIRE 176 752 -528 752
WIRE 608 752 608 -16
WIRE 608 752 176 752
FLAG -464 224 e1
IOPIN -464 224 In
FLAG -464 112 e0
IOPIN -464 112 In
FLAG -464 80 _e1
IOPIN -464 80 In
FLAG -464 256 _e0
IOPIN -464 256 In
FLAG -352 128 _Av
IOPIN -352 128 In
FLAG -240 144 _Ar
IOPIN -240 144 In
FLAG -128 160 Ar
IOPIN -128 160 In
FLAG -16 176 M
IOPIN -16 176 In
FLAG -16 320 M
IOPIN -16 320 In
FLAG -128 304 Av
IOPIN -128 304 In
FLAG -240 288 _Av
IOPIN -240 288 In
FLAG -352 272 _Ar
IOPIN -352 272 In
FLAG 96 160 e0+
IOPIN 96 160 Out
FLAG 96 304 e1+
IOPIN 96 304 Out
FLAG 0 -80 Ar
IOPIN 0 -80 In
FLAG 112 -80 _Ar
IOPIN 112 -80 Out
FLAG 112 -160 _Av
IOPIN 112 -160 Out
FLAG 0 -160 Av
IOPIN 0 -160 In
FLAG 288 160 e0+
IOPIN 288 160 In
FLAG 288 192 CLK
IOPIN 288 192 In
FLAG 384 80 PRE
IOPIN 384 80 In
FLAG 480 224 _e0
IOPIN 480 224 Out
FLAG 384 304 CLR
IOPIN 384 304 In
FLAG 384 448 PRE
IOPIN 384 448 In
FLAG 480 592 _e1
IOPIN 480 592 Out
FLAG 384 672 CLR
IOPIN 384 672 In
FLAG 480 528 e1
IOPIN 480 528 Out
FLAG 288 528 e1+
IOPIN 288 528 In
FLAG 288 560 CLK
IOPIN 288 560 In
FLAG 480 160 e0
IOPIN 480 160 Out
FLAG -448 448 _e1
IOPIN -448 448 In
FLAG -448 480 e0
IOPIN -448 480 In
FLAG -112 496 e0
IOPIN -112 496 In
FLAG -112 464 e1
IOPIN -112 464 In
FLAG -416 592 _e0
IOPIN -416 592 In
FLAG -416 624 e1
IOPIN -416 624 In
FLAG -336 464 Avancer
IOPIN -336 464 Out
FLAG 0 480 Feux_avant
IOPIN 0 480 Out
FLAG -304 608 Reculer
IOPIN -304 608 Out
FLAG 0 688 Feux_arričre
IOPIN 0 688 Out
FLAG -304 -64 0
FLAG -224 -64 0
FLAG -144 -64 0
FLAG -304 -144 M
IOPIN -304 -144 Out
FLAG -224 -144 Av
IOPIN -224 -144 Out
FLAG -144 -144 Ar
IOPIN -144 -144 Out
FLAG -384 -64 0
FLAG -384 -144 CLK
IOPIN -384 -144 Out
FLAG -464 -64 0
FLAG -464 -144 PRE
IOPIN -464 -144 Out
FLAG -224 688 e1
IOPIN -224 688 In
FLAG -608 -80 0
FLAG -608 -160 CLR
IOPIN -608 -160 In
SYMBOL 74HCT\\74hct08 -304 48 R0
SYMATTR InstName U1
SYMBOL 74HCT\\74hct32 -416 32 R0
SYMATTR InstName U2
SYMBOL 74HCT\\74hct08 -192 64 R0
SYMATTR InstName U3
SYMBOL 74HCT\\74hct32 -80 80 R0
SYMATTR InstName U4
SYMBOL 74HCT\\74hct08 32 96 R0
SYMATTR InstName U5
SYMBOL 74HCT\\74hct08 -416 176 R0
SYMATTR InstName U6
SYMBOL 74HCT\\74hct08 -304 192 R0
SYMATTR InstName U7
SYMBOL 74HCT\\74hct08 -192 208 R0
SYMATTR InstName U8
SYMBOL 74HCT\\74hct32 -80 224 R0
SYMATTR InstName U9
SYMBOL 74HCT\\74hct08 32 240 R0
SYMATTR InstName U10
SYMBOL 74HCT\\74hct04 48 -144 R0
SYMATTR InstName U11
SYMBOL 74HCT\\74hct04 48 -224 R0
SYMATTR InstName U12
SYMBOL 74HCT\\74hct74 384 80 R0
SYMATTR InstName U13
SYMBOL 74HCT\\74hct74 384 448 R0
SYMATTR InstName U14
SYMBOL 74HCT\\74hct32 -64 416 R0
SYMATTR InstName U15
SYMBOL 74HCT\\74hct08 -400 400 R0
SYMATTR InstName U16
SYMBOL 74HCT\\74hct08 -368 544 R0
SYMATTR InstName U17
SYMBOL voltage -304 -160 R0
WINDOW 3 24 44 Left 2
WINDOW 123 0 0 Left 0
WINDOW 39 0 0 Left 0
SYMATTR Value PWL(0 0 2u 0 2.000001u 5)
SYMATTR InstName V1
SYMBOL voltage -224 -160 R0
WINDOW 123 0 0 Left 0
WINDOW 39 0 0 Left 0
SYMATTR InstName V2
SYMATTR Value 0V
SYMBOL voltage -144 -160 R0
WINDOW 123 0 0 Left 0
WINDOW 39 0 0 Left 0
SYMATTR InstName V3
SYMATTR Value 0V
SYMBOL voltage -384 -160 R0
WINDOW 3 24 44 Invisible 2
WINDOW 123 0 0 Left 0
WINDOW 39 0 0 Left 0
SYMATTR Value PULSE(0 5 0 1p 1p 0.3u 0.6u)
SYMATTR InstName V4
SYMBOL voltage -464 -160 R0
WINDOW 123 0 0 Left 0
WINDOW 39 0 0 Left 0
SYMATTR InstName V5
SYMATTR Value 5V
SYMBOL voltage -608 -176 R0
WINDOW 123 0 0 Left 0
WINDOW 39 0 0 Left 0
SYMATTR InstName V6
SYMATTR Value 5V
SYMBOL 74hct04 -176 624 R0
SYMATTR InstName U18
SYMBOL 74hct04 -64 624 R0
SYMATTR InstName U19
TEXT 304 -128 Left 2 !.tran 20us
TEXT 776 216 Left 2 !.lib 74HCT.lib
