Version 4
SHEET 1 880 680
WIRE -48 -400 -256 -400
WIRE -256 -320 -256 -400
WIRE -48 -288 -48 -320
WIRE -48 -272 -48 -288
WIRE 48 -192 0 -192
WIRE 112 -192 48 -192
WIRE 112 -160 112 -192
WIRE -256 -48 -256 -240
WIRE -48 -48 -48 -176
WIRE 112 -48 112 -80
FLAG 112 -48 0
FLAG -48 -48 0
FLAG -256 -48 0
FLAG 48 -192 Vgs
FLAG -48 -288 VDS
SYMBOL voltage 112 -176 R0
WINDOW 3 24 44 Left 2
WINDOW 123 0 0 Left 2
WINDOW 39 0 0 Left 2
SYMATTR Value PULSE(-10 10 0 1us 1us 0.05ms 0.1ms)
SYMATTR InstName Vgs
SYMBOL nmos 0 -272 M0
SYMATTR InstName M1
SYMATTR Value 2N7002
SYMBOL res -64 -416 R0
SYMATTR InstName R3
SYMATTR Value 100k
SYMBOL voltage -256 -336 R0
WINDOW 123 0 0 Left 2
WINDOW 39 0 0 Left 2
WINDOW 3 24 44 Left 2
SYMATTR InstName Ve
SYMATTR Value 3
TEXT -528 -56 Left 2 !.tran 1m
