Version 4
SHEET 1 2336 1116
WIRE 1664 -960 336 -960
WIRE 1040 -848 944 -848
WIRE 1104 -848 1040 -848
WIRE 1136 -848 1104 -848
WIRE 944 -784 448 -784
WIRE 1040 -752 1040 -848
WIRE 1264 -704 1200 -704
WIRE 592 -672 512 -672
WIRE 880 -672 816 -672
WIRE 1200 -672 1200 -704
WIRE 512 -656 512 -672
WIRE 1040 -656 1040 -672
WIRE 1040 -656 976 -656
WIRE 1040 -640 1040 -656
WIRE 448 -608 448 -784
WIRE 592 -608 448 -608
WIRE 976 -608 976 -656
WIRE 976 -608 816 -608
WIRE 592 -544 96 -544
WIRE 944 -544 944 -784
WIRE 944 -544 816 -544
WIRE 1040 -544 1040 -560
WIRE 1040 -544 944 -544
WIRE 1200 -496 1200 -592
WIRE 528 -480 512 -480
WIRE 592 -480 528 -480
WIRE 880 -480 816 -480
WIRE 880 -464 880 -480
WIRE 1040 -464 1040 -544
WIRE 880 -336 880 -400
WIRE 1040 -336 1040 -400
WIRE -432 -304 -784 -304
WIRE 336 -176 336 -960
WIRE 1664 -176 1664 -960
WIRE 1664 -176 336 -176
WIRE -784 -32 -784 -304
WIRE -432 -32 -432 -304
WIRE -432 -32 -784 -32
WIRE -16 -32 -432 -32
WIRE 1024 -32 176 -32
WIRE 2000 -32 1072 -32
WIRE -368 112 -368 96
WIRE -224 112 -224 96
WIRE 96 176 96 -544
WIRE 304 176 96 176
WIRE -624 288 -624 240
WIRE -784 400 -784 -32
WIRE -16 400 -16 -32
WIRE -16 400 -784 400
WIRE 176 464 176 -32
WIRE 1024 464 1024 -32
WIRE 1024 464 176 464
WIRE 1072 464 1072 -32
WIRE 2000 464 2000 -32
WIRE 2000 464 1072 464
FLAG -368 192 0
FLAG -224 192 0
FLAG -624 368 0
FLAG -624 240 V_Distance
IOPIN -624 240 Out
FLAG -224 96 Low
IOPIN -224 96 Out
FLAG -368 96 High
IOPIN -368 96 Out
FLAG 1776 128 QS0
IOPIN 1776 128 Out
FLAG 1776 160 QS1
IOPIN 1776 160 Out
FLAG 1776 192 QS2
IOPIN 1776 192 Out
FLAG 1776 224 QS3
IOPIN 1776 224 Out
FLAG 1584 32 LOW
IOPIN 1584 32 In
FLAG 1584 256 LOW
IOPIN 1584 256 In
FLAG 1584 288 LOW
IOPIN 1584 288 In
FLAG 1584 320 LOW
IOPIN 1584 320 In
FLAG 1584 352 LOW
IOPIN 1584 352 In
FLAG 304 80 HIGH
IOPIN 304 80 In
FLAG 304 144 HIGH
IOPIN 304 144 In
FLAG 528 416 TC
IOPIN 528 416 Out
FLAG 528 272 Q0
IOPIN 528 272 Out
FLAG 528 304 Q1
IOPIN 528 304 Out
FLAG 528 336 Q2
IOPIN 528 336 Out
FLAG 528 368 Q3
IOPIN 528 368 Out
FLAG 304 272 LOW
IOPIN 304 272 In
FLAG 304 304 LOW
IOPIN 304 304 In
FLAG 304 336 LOW
IOPIN 304 336 In
FLAG 304 368 LOW
IOPIN 304 368 In
FLAG 1584 128 Q0
IOPIN 1584 128 In
FLAG 1584 160 Q1
IOPIN 1584 160 In
FLAG 1584 192 Q2
IOPIN 1584 192 In
FLAG 1584 224 Q3
IOPIN 1584 224 In
FLAG 1584 64 V_Distance
IOPIN 1584 64 In
FLAG 1200 -496 0
FLAG 1264 -704 VCC
FLAG 880 -672 VCC
FLAG 512 -656 0
FLAG 1104 -848 VCC
FLAG 1040 -336 0
FLAG 528 -480 VCC
FLAG 880 -336 0
FLAG 304 48 V_Distance
IOPIN 304 48 In
FLAG 304 112 V_Distance
IOPIN 304 112 In
SYMBOL voltage -224 96 R0
WINDOW 123 0 0 Left 0
WINDOW 39 0 0 Left 0
SYMATTR InstName V1
SYMATTR Value 0V
SYMBOL voltage -624 272 R0
WINDOW 123 0 0 Left 0
WINDOW 39 0 0 Left 0
WINDOW 3 47 79 Left 2
SYMATTR Value PULSE(0 5 0n 0.1n 0.1n 4m 10m)
SYMATTR InstName V2
SYMBOL voltage -368 96 R0
WINDOW 123 0 0 Left 0
WINDOW 39 0 0 Left 0
SYMATTR InstName V3
SYMATTR Value 5V
SYMBOL 74hct373 1680 -32 R0
SYMATTR InstName U1
SYMBOL 74hct163 416 -32 R0
SYMATTR InstName U2
SYMBOL res 1024 -768 R0
SYMATTR InstName RA1
SYMATTR Value 2.4k
SYMBOL res 1024 -656 R0
SYMATTR InstName RB1
SYMATTR Value 1k
SYMBOL cap 1024 -464 R0
SYMATTR InstName C1
SYMATTR Value 330n
SYMBOL voltage 1200 -688 R0
WINDOW 123 0 0 Left 0
WINDOW 39 0 0 Left 0
SYMATTR InstName V4
SYMATTR Value 5V
SYMBOL Misc\\NE555 704 -576 R0
SYMATTR InstName U3
SYMBOL cap 864 -464 R0
SYMATTR InstName C2
SYMATTR Value 10n
TEXT -696 -200 Left 2 !.tran 30m
TEXT -696 -144 Left 2 !.lib 74HCT.lib
TEXT -504 304 Left 2 ;Rapport cyclique ŕ modifier
TEXT 920 -1024 Left 2 ;Fonction Annexe \n"Générer Signal Horloge"
TEXT 504 -56 Left 2 ;FP1 - "Compter"
TEXT 1464 -56 Left 2 ;FP2 - "Mémoriser"
TEXT -736 8 Left 2 ;Stimulis :
TEXT -744 -264 Left 2 ;Commandes :
