Version 4
SHEET 1 880 680
WIRE 496 -64 -416 -64
WIRE -416 256 -416 -64
WIRE 496 256 496 -64
WIRE 496 256 -416 256
WIRE 32 368 0 368
WIRE 336 368 304 368
WIRE -416 576 -416 256
WIRE 496 576 496 256
WIRE 496 576 -416 576
FLAG 48 144 0
FLAG 48 64 V1
IOPIN 48 64 In
FLAG -224 144 0
FLAG -80 144 0
FLAG -80 64 Vi1_1
IOPIN -80 64 In
FLAG -224 64 Vi1_2
IOPIN -224 64 In
FLAG 32 368 Vs
IOPIN 32 368 Out
FLAG -64 368 V1
IOPIN -64 368 In
FLAG 0 288 0
FLAG 336 368 Vs1
IOPIN 336 368 Out
FLAG 240 368 V1
IOPIN 240 368 In
FLAG 304 288 0
SYMBOL voltage 48 48 R0
WINDOW 123 0 0 Left 0
WINDOW 39 0 0 Left 0
SYMATTR InstName V1
SYMATTR Value PULSE(0 5 0 1us 1us 0.025 0.05)
SYMBOL voltage -224 48 R0
WINDOW 123 0 0 Left 0
WINDOW 39 0 0 Left 0
SYMATTR InstName Vi1_2
SYMATTR Value 0V
SYMBOL voltage -80 48 R0
WINDOW 123 0 0 Left 0
WINDOW 39 0 0 Left 0
SYMATTR InstName Vi1_1
SYMATTR Value 5V
SYMBOL diode -64 384 R270
WINDOW 0 32 32 VTop 2
WINDOW 3 0 32 VBottom 2
SYMATTR InstName D1
SYMATTR Value 1N4148
SYMBOL res -16 272 R0
SYMATTR InstName R1
SYMATTR Value 1k
SYMBOL LED -64 512 R270
WINDOW 0 72 32 VTop 2
WINDOW 3 0 32 VBottom 2
SYMATTR InstName D2
SYMATTR Value QTLP690C
SYMATTR Description Diode
SYMATTR Type diode
SYMBOL res 288 272 R0
SYMATTR InstName R2
SYMATTR Value 1k
TEXT 232 48 Left 2 !.tran 0.5s
