Version 4
SHEET 1 3444 708
WIRE -640 -1440 -1072 -1440
WIRE 16 -1440 -528 -1440
WIRE -960 -1376 -1024 -1376
WIRE -784 -1376 -848 -1376
WIRE -1024 -1344 -1024 -1376
WIRE -848 -1344 -848 -1376
WIRE -1072 -1232 -1072 -1440
WIRE -640 -1232 -640 -1440
WIRE -640 -1232 -1072 -1232
WIRE -416 -1184 -464 -1184
WIRE -96 -1184 -160 -1184
WIRE 288 -1184 -96 -1184
WIRE 688 -1184 288 -1184
WIRE -560 -1168 -1088 -1168
WIRE 288 -1120 288 -1184
WIRE 688 -1120 688 -1184
WIRE -288 -1056 -288 -1088
WIRE -1088 -992 -1088 -1168
WIRE -560 -992 -560 -1168
WIRE -560 -992 -1088 -992
WIRE -528 -992 -528 -1440
WIRE 16 -992 16 -1440
WIRE 16 -992 -528 -992
WIRE 288 -960 288 -1040
WIRE 688 -960 688 -1040
FLAG 144 -960 0
FLAG -1024 -1264 0
FLAG -960 -1376 VCC
IOPIN -960 -1376 Out
FLAG -848 -1264 0
FLAG -784 -1376 VSS
IOPIN -784 -1376 Out
FLAG -96 -1184 VDD
IOPIN -96 -1184 Out
FLAG -288 -1056 0
FLAG -464 -1184 Vcc
IOPIN -464 -1184 In
FLAG 288 -960 0
FLAG 688 -960 0
SYMBOL voltage -1024 -1360 R0
WINDOW 123 0 0 Left 2
WINDOW 39 0 0 Left 2
SYMATTR InstName V1
SYMATTR Value 15
SYMBOL voltage -848 -1360 R0
WINDOW 123 0 0 Left 2
WINDOW 39 0 0 Left 2
SYMATTR InstName V2
SYMATTR Value -15
SYMBOL 7805 -288 -1184 R0
SYMATTR InstName U11
SYMBOL current 288 -1120 R0
WINDOW 123 0 0 Left 2
WINDOW 39 0 0 Left 2
SYMATTR InstName I1
SYMATTR Value PULSE()
SYMBOL current 688 -1120 R0
WINDOW 3 23 117 Left 2
WINDOW 123 0 0 Left 2
WINDOW 39 0 0 Left 2
SYMATTR Value PULSE()
SYMATTR InstName I2
TEXT -1048 -1024 Left 2 !.tran 0 0.2m 0
TEXT -1032 -1136 Left 2 ;SPICE DIRECTIVES et SIMULATION
TEXT -960 -1416 Left 2 ;alimentations
TEXT -496 -1416 Left 2 ;le RIT est  simulé par le composant ci dessous\nUn élément est ŕ rajouter pour garantir \nla stabilitéde la tension de sortie\nface aux appels de courants
TEXT -1032 -1072 Left 2 !.inc Vreg.lib
